Version 4
SHEET 1 880 680
WIRE 208 -64 -16 -64
WIRE 208 -48 208 -64
WIRE 160 32 64 32
WIRE 64 48 64 32
WIRE 208 64 208 48
WIRE -16 128 -16 16
WIRE 64 128 -16 128
WIRE 64 144 64 128
WIRE 144 144 64 144
WIRE 208 144 144 144
WIRE 144 192 144 144
FLAG 144 192 0
SYMBOL Contrib\\Toshiba\\nmos\\T2N7002BK 160 -48 R0
SYMATTR InstName U1
SYMATTR Value TIP31C
SYMBOL voltage -16 -80 R0
WINDOW 123 0 0 Left 0
WINDOW 39 0 0 Left 0
SYMATTR InstName V1
SYMATTR Value 6.6
SYMBOL voltage 64 32 R0
WINDOW 123 0 0 Left 0
WINDOW 39 0 0 Left 0
SYMATTR InstName V2
SYMATTR Value SINE(0 4 20)
SYMBOL res 192 48 R0
SYMATTR InstName R1
TEXT 176 -120 Left 2 !.include tip31c.txt
TEXT -50 216 Left 2 !.tran 0.05
